<configuration>
	<input>
		<net-file value="test.net.xml"/>
		<route-files value="test.rou.xml"/>
		<additional-files value="test.cal.xml,test.det.xml"/>
	</input>
	
	<time>
		<begin value="0"/>
		<end value="600"/>
		<delay value="100"/>
		<step-length value="0.1"/>
	</time>
	
	<junction-taz value="true"/>
</configuration>