<?xml version="1.0" encoding="UTF-8"?>

<!-- generated on 2023-05-07 15:23:28 by Eclipse SUMO netedit Version 1.14.1
<configuration xmlns:xsi="http://www.w3.org/2001/XMLSchema-instance" xsi:noNamespaceSchemaLocation="http://sumo.dlr.de/xsd/netconvertConfiguration.xsd">

    <input>
        <sumo-net-file value="P:\学校相关\第八学期\毕业设计\project\SUMO\test\test.net.xml"/>
    </input>

    <output>
        <output-file value="P:\学校相关\第八学期\毕业设计\project\SUMO\test\test.net.xml"/>
    </output>

    <processing>
        <geometry.min-radius.fix.railways value="false"/>
        <geometry.max-grade.fix value="false"/>
        <offset.disable-normalization value="true"/>
        <lefthand value="false"/>
    </processing>

    <junctions>
        <no-turnarounds value="true"/>
        <junctions.corner-detail value="5"/>
        <junctions.limit-turn-speed value="5.5"/>
        <rectangular-lane-cut value="false"/>
    </junctions>

    <pedestrian>
        <walkingareas value="false"/>
    </pedestrian>

    <netedit>
        <additional-files value="P:\学校相关\第八学期\毕业设计\project\SUMO\test\test.e2.xml"/>
    </netedit>

</configuration>
-->

<net version="1.9" junctionCornerDetail="5" limitTurnSpeed="5.50" xmlns:xsi="http://www.w3.org/2001/XMLSchema-instance" xsi:noNamespaceSchemaLocation="http://sumo.dlr.de/xsd/net_file.xsd">

    <location netOffset="0.00,0.00" convBoundary="-900.00,-900.00,900.00,900.00" origBoundary="-10000000000.00,-10000000000.00,10000000000.00,10000000000.00" projParameter="!"/>

    <edge id=":E_0" function="internal">
        <lane id=":E_0_0" index="0" speed="6.51" length="9.03" shape="588.80,16.80 588.45,14.35 587.40,12.60 585.65,11.55 583.20,11.20"/>
    </edge>
    <edge id=":E_1" function="internal">
        <lane id=":E_1_0" index="0" speed="13.89" length="33.80" shape="592.00,16.80 592.50,6.54 593.60,-0.70 594.70,-7.60 595.20,-16.80"/>
        <lane id=":E_1_1" index="1" speed="13.89" length="33.80" shape="595.20,16.80 595.70,6.54 596.80,-0.70 597.90,-7.60 598.40,-16.80"/>
    </edge>
    <edge id=":E_3" function="internal">
        <lane id=":E_3_0" index="0" speed="11.36" length="7.96" shape="598.40,16.80 599.53,8.92"/>
    </edge>
    <edge id=":E_16" function="internal">
        <lane id=":E_16_0" index="0" speed="11.36" length="21.72" shape="599.53,8.92 599.55,8.75 603.00,3.00 608.75,-0.45 616.80,-1.60"/>
    </edge>
    <edge id=":E_4" function="internal">
        <lane id=":E_4_0" index="0" speed="7.33" length="11.73" shape="616.80,11.20 612.95,11.55 610.20,12.60 608.55,14.35 608.00,16.80"/>
    </edge>
    <edge id=":E_5" function="internal">
        <lane id=":E_5_0" index="0" speed="13.89" length="33.60" shape="616.80,8.00 583.20,8.00"/>
        <lane id=":E_5_1" index="1" speed="13.89" length="33.60" shape="616.80,4.80 583.20,4.80"/>
    </edge>
    <edge id=":E_7" function="internal">
        <lane id=":E_7_0" index="0" speed="11.36" length="7.96" shape="616.80,1.60 608.92,0.47"/>
    </edge>
    <edge id=":E_17" function="internal">
        <lane id=":E_17_0" index="0" speed="11.36" length="21.72" shape="608.92,0.47 608.75,0.45 603.00,-3.00 599.55,-8.75 598.40,-16.80"/>
    </edge>
    <edge id=":E_8" function="internal">
        <lane id=":E_8_0" index="0" speed="7.33" length="11.73" shape="611.20,-16.80 611.55,-12.95 612.60,-10.20 614.35,-8.55 616.80,-8.00"/>
    </edge>
    <edge id=":E_9" function="internal">
        <lane id=":E_9_0" index="0" speed="13.89" length="33.80" shape="608.00,-16.80 607.50,-6.54 606.40,0.70 605.30,7.60 604.80,16.80"/>
        <lane id=":E_9_1" index="1" speed="13.89" length="33.80" shape="604.80,-16.80 604.30,-6.54 603.20,0.70 602.10,7.60 601.60,16.80"/>
    </edge>
    <edge id=":E_11" function="internal">
        <lane id=":E_11_0" index="0" speed="11.36" length="7.96" shape="601.60,-16.80 600.47,-8.92"/>
    </edge>
    <edge id=":E_18" function="internal">
        <lane id=":E_18_0" index="0" speed="11.36" length="21.72" shape="600.47,-8.92 600.45,-8.75 597.00,-3.00 591.25,0.45 583.20,1.60"/>
    </edge>
    <edge id=":E_12" function="internal">
        <lane id=":E_12_0" index="0" speed="7.33" length="11.73" shape="583.20,-11.20 587.05,-11.55 589.80,-12.60 591.45,-14.35 592.00,-16.80"/>
    </edge>
    <edge id=":E_13" function="internal">
        <lane id=":E_13_0" index="0" speed="13.89" length="33.80" shape="583.20,-8.00 593.46,-7.50 600.70,-6.40 607.60,-5.30 616.80,-4.80"/>
        <lane id=":E_13_1" index="1" speed="13.89" length="33.80" shape="583.20,-4.80 593.46,-4.30 600.70,-3.20 607.60,-2.10 616.80,-1.60"/>
    </edge>
    <edge id=":E_15" function="internal">
        <lane id=":E_15_0" index="0" speed="11.36" length="13.36" shape="583.20,-1.60 591.25,-0.45 595.74,2.24"/>
    </edge>
    <edge id=":E_19" function="internal">
        <lane id=":E_19_0" index="0" speed="11.36" length="16.31" shape="595.74,2.24 597.00,3.00 600.45,8.75 601.60,16.80"/>
    </edge>
    <edge id=":J_0" function="internal">
        <lane id=":J_0_0" index="0" speed="6.51" length="9.03" shape="-11.20,16.80 -11.55,14.35 -12.60,12.60 -14.35,11.55 -16.80,11.20"/>
    </edge>
    <edge id=":J_1" function="internal">
        <lane id=":J_1_0" index="0" speed="13.89" length="33.60" shape="-11.20,16.80 -11.20,-16.80"/>
    </edge>
    <edge id=":J_2" function="internal">
        <lane id=":J_2_0" index="0" speed="13.33" length="20.06" shape="-11.20,16.80 -8.07,8.68 -0.88,-0.11"/>
    </edge>
    <edge id=":J_3" function="internal">
        <lane id=":J_3_0" index="0" speed="8.00" length="4.07" shape="-8.00,16.80 -8.55,12.95 -8.64,12.80"/>
    </edge>
    <edge id=":J_4" function="internal">
        <lane id=":J_4_0" index="0" speed="13.89" length="33.60" shape="-8.00,16.80 -8.00,-16.80"/>
    </edge>
    <edge id=":J_5" function="internal">
        <lane id=":J_5_0" index="0" speed="12.62" length="15.26" shape="-8.00,16.80 -5.37,9.18 -0.90,3.54"/>
    </edge>
    <edge id=":J_6" function="internal">
        <lane id=":J_6_0" index="0" speed="9.26" length="5.01" shape="-4.80,16.80 -5.51,11.84"/>
    </edge>
    <edge id=":J_7" function="internal">
        <lane id=":J_7_0" index="0" speed="13.89" length="33.60" shape="-4.80,16.80 -4.80,-16.80"/>
    </edge>
    <edge id=":J_8" function="internal">
        <lane id=":J_8_0" index="0" speed="11.87" length="10.34" shape="-4.80,16.80 -2.67,9.68 -0.92,7.37"/>
    </edge>
    <edge id=":J_9" function="internal">
        <lane id=":J_9_0" index="0" speed="10.36" length="5.01" shape="-1.60,16.80 -2.31,11.84"/>
    </edge>
    <edge id=":J_10" function="internal">
        <lane id=":J_10_0" index="0" speed="13.89" length="33.60" shape="-1.60,16.80 -1.60,-16.80"/>
    </edge>
    <edge id=":J_11" function="internal">
        <lane id=":J_11_0" index="0" speed="11.07" length="2.96" shape="-1.60,16.80 -0.87,13.93"/>
    </edge>
    <edge id=":J_48" function="internal">
        <lane id=":J_48_0" index="0" speed="13.33" length="21.15" shape="-0.88,-0.11 -0.53,-0.53 8.68,-8.07 16.80,-11.20"/>
    </edge>
    <edge id=":J_49" function="internal">
        <lane id=":J_49_0" index="0" speed="8.00" length="10.13" shape="-8.64,12.80 -10.20,10.20 -12.95,8.55 -16.80,8.00"/>
    </edge>
    <edge id=":J_50" function="internal">
        <lane id=":J_50_0" index="0" speed="12.62" length="21.58" shape="-0.90,3.54 1.07,1.07 9.18,-5.37 16.80,-8.00"/>
    </edge>
    <edge id=":J_51" function="internal">
        <lane id=":J_51_0" index="0" speed="9.26" length="14.34" shape="-5.51,11.84 -5.55,11.55 -7.80,7.80 -11.55,5.55 -16.80,4.80"/>
    </edge>
    <edge id=":J_52" function="internal">
        <lane id=":J_52_0" index="0" speed="11.87" length="22.16" shape="-0.92,7.37 2.67,2.67 9.68,-2.67 16.80,-4.80"/>
    </edge>
    <edge id=":J_53" function="internal">
        <lane id=":J_53_0" index="0" speed="10.36" length="19.50" shape="-2.31,11.84 -2.55,10.15 -5.40,5.40 -10.15,2.55 -16.80,1.60"/>
    </edge>
    <edge id=":J_54" function="internal">
        <lane id=":J_54_0" index="0" speed="11.07" length="25.14" shape="-0.87,13.93 0.06,10.27 4.35,4.35 10.27,0.06 16.80,-1.60"/>
    </edge>
    <edge id=":J_12" function="internal">
        <lane id=":J_12_0" index="0" speed="6.51" length="9.03" shape="16.80,11.20 14.35,11.55 12.60,12.60 11.55,14.35 11.20,16.80"/>
    </edge>
    <edge id=":J_13" function="internal">
        <lane id=":J_13_0" index="0" speed="13.89" length="33.60" shape="16.80,11.20 -16.80,11.20"/>
    </edge>
    <edge id=":J_14" function="internal">
        <lane id=":J_14_0" index="0" speed="13.33" length="20.04" shape="16.80,11.20 8.68,8.07 -0.09,0.89"/>
    </edge>
    <edge id=":J_15" function="internal">
        <lane id=":J_15_0" index="0" speed="8.00" length="4.07" shape="16.80,8.00 12.95,8.55 12.80,8.64"/>
    </edge>
    <edge id=":J_16" function="internal">
        <lane id=":J_16_0" index="0" speed="13.89" length="33.60" shape="16.80,8.00 -16.80,8.00"/>
    </edge>
    <edge id=":J_17" function="internal">
        <lane id=":J_17_0" index="0" speed="12.62" length="15.25" shape="16.80,8.00 9.18,5.37 3.55,0.91"/>
    </edge>
    <edge id=":J_18" function="internal">
        <lane id=":J_18_0" index="0" speed="9.26" length="5.01" shape="16.80,4.80 11.84,5.51"/>
    </edge>
    <edge id=":J_19" function="internal">
        <lane id=":J_19_0" index="0" speed="13.89" length="33.60" shape="16.80,4.80 -16.80,4.80"/>
    </edge>
    <edge id=":J_20" function="internal">
        <lane id=":J_20_0" index="0" speed="11.87" length="10.33" shape="16.80,4.80 9.68,2.67 7.38,0.92"/>
    </edge>
    <edge id=":J_21" function="internal">
        <lane id=":J_21_0" index="0" speed="10.36" length="5.01" shape="16.80,1.60 11.84,2.31"/>
    </edge>
    <edge id=":J_22" function="internal">
        <lane id=":J_22_0" index="0" speed="13.89" length="33.60" shape="16.80,1.60 -16.80,1.60"/>
    </edge>
    <edge id=":J_23" function="internal">
        <lane id=":J_23_0" index="0" speed="11.07" length="2.95" shape="16.80,1.60 13.94,0.87"/>
    </edge>
    <edge id=":J_55" function="internal">
        <lane id=":J_55_0" index="0" speed="13.33" length="21.18" shape="-0.09,0.89 -0.53,0.53 -8.07,-8.68 -11.20,-16.80"/>
    </edge>
    <edge id=":J_56" function="internal">
        <lane id=":J_56_0" index="0" speed="8.00" length="10.13" shape="12.80,8.64 10.20,10.20 8.55,12.95 8.00,16.80"/>
    </edge>
    <edge id=":J_57" function="internal">
        <lane id=":J_57_0" index="0" speed="12.62" length="21.59" shape="3.55,0.91 1.07,-1.07 -5.37,-9.18 -8.00,-16.80"/>
    </edge>
    <edge id=":J_58" function="internal">
        <lane id=":J_58_0" index="0" speed="9.26" length="14.34" shape="11.84,5.51 11.55,5.55 7.80,7.80 5.55,11.55 4.80,16.80"/>
    </edge>
    <edge id=":J_59" function="internal">
        <lane id=":J_59_0" index="0" speed="11.87" length="22.17" shape="7.38,0.92 2.67,-2.67 -2.67,-9.68 -4.80,-16.80"/>
    </edge>
    <edge id=":J_60" function="internal">
        <lane id=":J_60_0" index="0" speed="10.36" length="19.50" shape="11.84,2.31 10.15,2.55 5.40,5.40 2.55,10.15 1.60,16.80"/>
    </edge>
    <edge id=":J_61" function="internal">
        <lane id=":J_61_0" index="0" speed="11.07" length="25.15" shape="13.94,0.87 10.27,-0.06 4.35,-4.35 0.06,-10.27 -1.60,-16.80"/>
    </edge>
    <edge id=":J_24" function="internal">
        <lane id=":J_24_0" index="0" speed="6.51" length="9.03" shape="11.20,-16.80 11.55,-14.35 12.60,-12.60 14.35,-11.55 16.80,-11.20"/>
    </edge>
    <edge id=":J_25" function="internal">
        <lane id=":J_25_0" index="0" speed="13.89" length="33.60" shape="11.20,-16.80 11.20,16.80"/>
    </edge>
    <edge id=":J_26" function="internal">
        <lane id=":J_26_0" index="0" speed="13.33" length="20.06" shape="11.20,-16.80 8.07,-8.68 0.88,0.11"/>
    </edge>
    <edge id=":J_27" function="internal">
        <lane id=":J_27_0" index="0" speed="8.00" length="4.07" shape="8.00,-16.80 8.55,-12.95 8.64,-12.80"/>
    </edge>
    <edge id=":J_28" function="internal">
        <lane id=":J_28_0" index="0" speed="13.89" length="33.60" shape="8.00,-16.80 8.00,16.80"/>
    </edge>
    <edge id=":J_29" function="internal">
        <lane id=":J_29_0" index="0" speed="12.62" length="15.26" shape="8.00,-16.80 5.37,-9.18 0.90,-3.54"/>
    </edge>
    <edge id=":J_30" function="internal">
        <lane id=":J_30_0" index="0" speed="9.26" length="5.01" shape="4.80,-16.80 5.51,-11.84"/>
    </edge>
    <edge id=":J_31" function="internal">
        <lane id=":J_31_0" index="0" speed="13.89" length="33.60" shape="4.80,-16.80 4.80,16.80"/>
    </edge>
    <edge id=":J_32" function="internal">
        <lane id=":J_32_0" index="0" speed="11.87" length="10.34" shape="4.80,-16.80 2.67,-9.68 0.92,-7.37"/>
    </edge>
    <edge id=":J_33" function="internal">
        <lane id=":J_33_0" index="0" speed="10.36" length="5.01" shape="1.60,-16.80 2.31,-11.84"/>
    </edge>
    <edge id=":J_34" function="internal">
        <lane id=":J_34_0" index="0" speed="13.89" length="33.60" shape="1.60,-16.80 1.60,16.80"/>
    </edge>
    <edge id=":J_35" function="internal">
        <lane id=":J_35_0" index="0" speed="11.07" length="2.96" shape="1.60,-16.80 0.87,-13.93"/>
    </edge>
    <edge id=":J_62" function="internal">
        <lane id=":J_62_0" index="0" speed="13.33" length="21.15" shape="0.88,0.11 0.53,0.53 -8.68,8.07 -16.80,11.20"/>
    </edge>
    <edge id=":J_63" function="internal">
        <lane id=":J_63_0" index="0" speed="8.00" length="10.13" shape="8.64,-12.80 10.20,-10.20 12.95,-8.55 16.80,-8.00"/>
    </edge>
    <edge id=":J_64" function="internal">
        <lane id=":J_64_0" index="0" speed="12.62" length="21.58" shape="0.90,-3.54 -1.07,-1.07 -9.18,5.37 -16.80,8.00"/>
    </edge>
    <edge id=":J_65" function="internal">
        <lane id=":J_65_0" index="0" speed="9.26" length="14.34" shape="5.51,-11.84 5.55,-11.55 7.80,-7.80 11.55,-5.55 16.80,-4.80"/>
    </edge>
    <edge id=":J_66" function="internal">
        <lane id=":J_66_0" index="0" speed="11.87" length="22.16" shape="0.92,-7.37 -2.67,-2.67 -9.68,2.67 -16.80,4.80"/>
    </edge>
    <edge id=":J_67" function="internal">
        <lane id=":J_67_0" index="0" speed="10.36" length="19.50" shape="2.31,-11.84 2.55,-10.15 5.40,-5.40 10.15,-2.55 16.80,-1.60"/>
    </edge>
    <edge id=":J_68" function="internal">
        <lane id=":J_68_0" index="0" speed="11.07" length="25.14" shape="0.87,-13.93 -0.06,-10.27 -4.35,-4.35 -10.27,-0.06 -16.80,1.60"/>
    </edge>
    <edge id=":J_36" function="internal">
        <lane id=":J_36_0" index="0" speed="6.52" length="9.05" shape="-16.80,-11.17 -14.35,-11.53 -12.60,-12.58 -11.55,-14.34 -11.20,-16.80"/>
    </edge>
    <edge id=":J_37" function="internal">
        <lane id=":J_37_0" index="0" speed="13.89" length="33.60" shape="-16.80,-11.17 16.80,-11.20"/>
    </edge>
    <edge id=":J_38" function="internal">
        <lane id=":J_38_0" index="0" speed="13.31" length="20.04" shape="-16.80,-11.17 -8.68,-8.06 0.10,-0.88"/>
    </edge>
    <edge id=":J_39" function="internal">
        <lane id=":J_39_0" index="0" speed="8.01" length="4.06" shape="-16.80,-7.97 -12.95,-8.53 -12.80,-8.62"/>
    </edge>
    <edge id=":J_40" function="internal">
        <lane id=":J_40_0" index="0" speed="13.89" length="33.60" shape="-16.80,-7.97 16.80,-8.00"/>
    </edge>
    <edge id=":J_41" function="internal">
        <lane id=":J_41_0" index="0" speed="12.61" length="15.24" shape="-16.80,-7.97 -9.18,-5.36 -3.55,-0.90"/>
    </edge>
    <edge id=":J_42" function="internal">
        <lane id=":J_42_0" index="0" speed="9.27" length="4.98" shape="-16.80,-4.77 -11.87,-5.49"/>
    </edge>
    <edge id=":J_43" function="internal">
        <lane id=":J_43_0" index="0" speed="13.89" length="33.60" shape="-16.80,-4.77 16.80,-4.80"/>
    </edge>
    <edge id=":J_44" function="internal">
        <lane id=":J_44_0" index="0" speed="11.86" length="10.31" shape="-16.80,-4.77 -9.68,-2.66 -7.39,-0.92"/>
    </edge>
    <edge id=":J_45" function="internal">
        <lane id=":J_45_0" index="0" speed="10.37" length="4.99" shape="-16.80,-1.57 -11.87,-2.29"/>
    </edge>
    <edge id=":J_46" function="internal">
        <lane id=":J_46_0" index="0" speed="13.89" length="33.60" shape="-16.80,-1.57 16.80,-1.60"/>
    </edge>
    <edge id=":J_47" function="internal">
        <lane id=":J_47_0" index="0" speed="11.06" length="2.86" shape="-16.80,-1.57 -14.02,-0.87"/>
    </edge>
    <edge id=":J_69" function="internal">
        <lane id=":J_69_0" index="0" speed="13.31" length="21.16" shape="0.10,-0.88 0.53,-0.52 8.07,8.68 11.20,16.80"/>
    </edge>
    <edge id=":J_70" function="internal">
        <lane id=":J_70_0" index="0" speed="8.01" length="10.15" shape="-12.80,-8.62 -10.20,-10.19 -8.55,-12.94 -8.00,-16.80"/>
    </edge>
    <edge id=":J_71" function="internal">
        <lane id=":J_71_0" index="0" speed="12.61" length="21.59" shape="-3.55,-0.90 -1.07,1.08 5.37,9.18 8.00,16.80"/>
    </edge>
    <edge id=":J_72" function="internal">
        <lane id=":J_72_0" index="0" speed="9.27" length="14.39" shape="-11.87,-5.49 -11.55,-5.53 -7.80,-7.79 -5.55,-11.55 -4.80,-16.80"/>
    </edge>
    <edge id=":J_73" function="internal">
        <lane id=":J_73_0" index="0" speed="11.86" length="22.17" shape="-7.39,-0.92 -2.67,2.68 2.67,9.68 4.80,16.80"/>
    </edge>
    <edge id=":J_74" function="internal">
        <lane id=":J_74_0" index="0" speed="10.37" length="19.54" shape="-11.87,-2.29 -10.15,-2.53 -5.40,-5.39 -2.55,-10.15 -1.60,-16.80"/>
    </edge>
    <edge id=":J_75" function="internal">
        <lane id=":J_75_0" index="0" speed="11.06" length="25.22" shape="-14.02,-0.87 -10.27,0.07 -4.35,4.36 -0.06,10.27 1.60,16.80"/>
    </edge>
    <edge id=":J0_0" function="internal">
        <lane id=":J0_0_0" index="0" speed="13.89" length="0.32" shape="-60.11,-11.20 -60.02,-11.18 -59.96,-11.15 -59.90,-11.12 -59.81,-11.10"/>
        <lane id=":J0_0_1" index="1" speed="13.89" length="0.32" shape="-60.11,-8.00 -60.01,-7.98 -59.96,-7.95 -59.90,-7.92 -59.81,-7.90"/>
        <lane id=":J0_0_2" index="2" speed="13.89" length="0.32" shape="-60.11,-4.80 -60.01,-4.78 -59.95,-4.75 -59.89,-4.72 -59.80,-4.70"/>
        <lane id=":J0_0_3" index="3" speed="13.89" length="0.32" shape="-60.11,-1.60 -60.01,-1.58 -59.95,-1.55 -59.89,-1.52 -59.80,-1.50"/>
    </edge>
    <edge id=":J1_0" function="internal">
        <lane id=":J1_0_0" index="0" speed="13.89" length="0.10" shape="-11.20,60.00 -11.20,60.00"/>
        <lane id=":J1_0_1" index="1" speed="13.89" length="0.10" shape="-8.00,60.00 -8.00,60.00"/>
        <lane id=":J1_0_2" index="2" speed="13.89" length="0.10" shape="-4.80,60.00 -4.80,60.00"/>
        <lane id=":J1_0_3" index="3" speed="13.89" length="0.10" shape="-1.60,60.00 -1.60,60.00"/>
    </edge>
    <edge id=":J2_0" function="internal">
        <lane id=":J2_0_0" index="0" speed="13.89" length="0.10" shape="60.00,11.20 60.00,11.20"/>
        <lane id=":J2_0_1" index="1" speed="13.89" length="0.10" shape="60.00,8.00 60.00,8.00"/>
        <lane id=":J2_0_2" index="2" speed="13.89" length="0.10" shape="60.00,4.80 60.00,4.80"/>
        <lane id=":J2_0_3" index="3" speed="13.89" length="0.10" shape="60.00,1.60 60.00,1.60"/>
    </edge>
    <edge id=":J3_0" function="internal">
        <lane id=":J3_0_0" index="0" speed="13.89" length="0.10" shape="11.20,-60.00 11.20,-60.00"/>
        <lane id=":J3_0_1" index="1" speed="13.89" length="0.10" shape="8.00,-60.00 8.00,-60.00"/>
        <lane id=":J3_0_2" index="2" speed="13.89" length="0.10" shape="4.80,-60.00 4.80,-60.00"/>
        <lane id=":J3_0_3" index="3" speed="13.89" length="0.10" shape="1.60,-60.00 1.60,-60.00"/>
    </edge>
    <edge id=":N_0" function="internal">
        <lane id=":N_0_0" index="0" speed="7.33" length="11.73" shape="-11.20,616.80 -11.55,612.95 -12.60,610.20 -14.35,608.55 -16.80,608.00"/>
    </edge>
    <edge id=":N_1" function="internal">
        <lane id=":N_1_0" index="0" speed="13.89" length="33.60" shape="-8.00,616.80 -8.00,583.20"/>
        <lane id=":N_1_1" index="1" speed="13.89" length="33.60" shape="-4.80,616.80 -4.80,583.20"/>
    </edge>
    <edge id=":N_3" function="internal">
        <lane id=":N_3_0" index="0" speed="11.36" length="7.96" shape="-1.60,616.80 -0.47,608.92"/>
    </edge>
    <edge id=":N_16" function="internal">
        <lane id=":N_16_0" index="0" speed="11.36" length="21.72" shape="-0.47,608.92 -0.45,608.75 3.00,603.00 8.75,599.55 16.80,598.40"/>
    </edge>
    <edge id=":N_4" function="internal">
        <lane id=":N_4_0" index="0" speed="7.33" length="11.73" shape="16.80,611.20 12.95,611.55 10.20,612.60 8.55,614.35 8.00,616.80"/>
    </edge>
    <edge id=":N_5" function="internal">
        <lane id=":N_5_0" index="0" speed="13.89" length="33.80" shape="16.80,608.00 6.54,607.50 -0.70,606.40 -7.60,605.30 -16.80,604.80"/>
        <lane id=":N_5_1" index="1" speed="13.89" length="33.80" shape="16.80,604.80 6.54,604.30 -0.70,603.20 -7.60,602.10 -16.80,601.60"/>
    </edge>
    <edge id=":N_7" function="internal">
        <lane id=":N_7_0" index="0" speed="11.36" length="7.96" shape="16.80,601.60 8.92,600.47"/>
    </edge>
    <edge id=":N_17" function="internal">
        <lane id=":N_17_0" index="0" speed="11.36" length="21.72" shape="8.92,600.47 8.75,600.45 3.00,597.00 -0.45,591.25 -1.60,583.20"/>
    </edge>
    <edge id=":N_8" function="internal">
        <lane id=":N_8_0" index="0" speed="7.33" length="11.73" shape="11.20,583.20 11.55,587.05 12.60,589.80 14.35,591.45 16.80,592.00"/>
    </edge>
    <edge id=":N_9" function="internal">
        <lane id=":N_9_0" index="0" speed="13.89" length="33.80" shape="8.00,583.20 7.50,593.46 6.40,600.70 5.30,607.60 4.80,616.80"/>
        <lane id=":N_9_1" index="1" speed="13.89" length="33.80" shape="4.80,583.20 4.30,593.46 3.20,600.70 2.10,607.60 1.60,616.80"/>
    </edge>
    <edge id=":N_11" function="internal">
        <lane id=":N_11_0" index="0" speed="11.36" length="13.36" shape="1.60,583.20 0.45,591.25 -2.24,595.74"/>
    </edge>
    <edge id=":N_18" function="internal">
        <lane id=":N_18_0" index="0" speed="11.36" length="16.31" shape="-2.24,595.74 -3.00,597.00 -8.75,600.45 -16.80,601.60"/>
    </edge>
    <edge id=":N_12" function="internal">
        <lane id=":N_12_0" index="0" speed="6.51" length="9.03" shape="-16.80,588.80 -14.35,588.45 -12.60,587.40 -11.55,585.65 -11.20,583.20"/>
    </edge>
    <edge id=":N_13" function="internal">
        <lane id=":N_13_0" index="0" speed="13.89" length="33.80" shape="-16.80,592.00 -6.54,592.50 0.70,593.60 7.60,594.70 16.80,595.20"/>
        <lane id=":N_13_1" index="1" speed="13.89" length="33.80" shape="-16.80,595.20 -6.54,595.70 0.70,596.80 7.60,597.90 16.80,598.40"/>
    </edge>
    <edge id=":N_15" function="internal">
        <lane id=":N_15_0" index="0" speed="11.36" length="7.96" shape="-16.80,598.40 -8.92,599.53"/>
    </edge>
    <edge id=":N_19" function="internal">
        <lane id=":N_19_0" index="0" speed="11.36" length="21.72" shape="-8.92,599.53 -8.75,599.55 -3.00,603.00 0.45,608.75 1.60,616.80"/>
    </edge>
    <edge id=":S_0" function="internal">
        <lane id=":S_0_0" index="0" speed="7.33" length="11.73" shape="-11.20,-583.20 -11.55,-587.05 -12.60,-589.80 -14.35,-591.45 -16.80,-592.00"/>
    </edge>
    <edge id=":S_1" function="internal">
        <lane id=":S_1_0" index="0" speed="13.89" length="33.80" shape="-8.00,-583.20 -7.50,-593.46 -6.40,-600.70 -5.30,-607.60 -4.80,-616.80"/>
        <lane id=":S_1_1" index="1" speed="13.89" length="33.80" shape="-4.80,-583.20 -4.30,-593.46 -3.20,-600.70 -2.10,-607.60 -1.60,-616.80"/>
    </edge>
    <edge id=":S_3" function="internal">
        <lane id=":S_3_0" index="0" speed="11.36" length="13.36" shape="-1.60,-583.20 -0.45,-591.25 2.24,-595.74"/>
    </edge>
    <edge id=":S_16" function="internal">
        <lane id=":S_16_0" index="0" speed="11.36" length="16.31" shape="2.24,-595.74 3.00,-597.00 8.75,-600.45 16.80,-601.60"/>
    </edge>
    <edge id=":S_4" function="internal">
        <lane id=":S_4_0" index="0" speed="6.51" length="9.03" shape="16.80,-588.80 14.35,-588.45 12.60,-587.40 11.55,-585.65 11.20,-583.20"/>
    </edge>
    <edge id=":S_5" function="internal">
        <lane id=":S_5_0" index="0" speed="13.89" length="33.80" shape="16.80,-592.00 6.54,-592.50 -0.70,-593.60 -7.60,-594.70 -16.80,-595.20"/>
        <lane id=":S_5_1" index="1" speed="13.89" length="33.80" shape="16.80,-595.20 6.54,-595.70 -0.70,-596.80 -7.60,-597.90 -16.80,-598.40"/>
    </edge>
    <edge id=":S_7" function="internal">
        <lane id=":S_7_0" index="0" speed="11.36" length="7.96" shape="16.80,-598.40 8.92,-599.53"/>
    </edge>
    <edge id=":S_17" function="internal">
        <lane id=":S_17_0" index="0" speed="11.36" length="21.72" shape="8.92,-599.53 8.75,-599.55 3.00,-603.00 -0.45,-608.75 -1.60,-616.80"/>
    </edge>
    <edge id=":S_8" function="internal">
        <lane id=":S_8_0" index="0" speed="7.33" length="11.73" shape="11.20,-616.80 11.55,-612.95 12.60,-610.20 14.35,-608.55 16.80,-608.00"/>
    </edge>
    <edge id=":S_9" function="internal">
        <lane id=":S_9_0" index="0" speed="13.89" length="33.60" shape="8.00,-616.80 8.00,-583.20"/>
        <lane id=":S_9_1" index="1" speed="13.89" length="33.60" shape="4.80,-616.80 4.80,-583.20"/>
    </edge>
    <edge id=":S_11" function="internal">
        <lane id=":S_11_0" index="0" speed="11.36" length="7.96" shape="1.60,-616.80 0.47,-608.92"/>
    </edge>
    <edge id=":S_18" function="internal">
        <lane id=":S_18_0" index="0" speed="11.36" length="21.72" shape="0.47,-608.92 0.45,-608.75 -3.00,-603.00 -8.75,-599.55 -16.80,-598.40"/>
    </edge>
    <edge id=":S_12" function="internal">
        <lane id=":S_12_0" index="0" speed="7.33" length="11.73" shape="-16.80,-611.20 -12.95,-611.55 -10.20,-612.60 -8.55,-614.35 -8.00,-616.80"/>
    </edge>
    <edge id=":S_13" function="internal">
        <lane id=":S_13_0" index="0" speed="13.89" length="33.80" shape="-16.80,-608.00 -6.54,-607.50 0.70,-606.40 7.60,-605.30 16.80,-604.80"/>
        <lane id=":S_13_1" index="1" speed="13.89" length="33.80" shape="-16.80,-604.80 -6.54,-604.30 0.70,-603.20 7.60,-602.10 16.80,-601.60"/>
    </edge>
    <edge id=":S_15" function="internal">
        <lane id=":S_15_0" index="0" speed="11.36" length="7.96" shape="-16.80,-601.60 -8.92,-600.47"/>
    </edge>
    <edge id=":S_19" function="internal">
        <lane id=":S_19_0" index="0" speed="11.36" length="21.72" shape="-8.92,-600.47 -8.75,-600.45 -3.00,-597.00 0.45,-591.25 1.60,-583.20"/>
    </edge>
    <edge id=":W_0" function="internal">
        <lane id=":W_0_0" index="0" speed="7.33" length="11.73" shape="-611.20,16.80 -611.55,12.95 -612.60,10.20 -614.35,8.55 -616.80,8.00"/>
    </edge>
    <edge id=":W_1" function="internal">
        <lane id=":W_1_0" index="0" speed="13.89" length="33.80" shape="-608.00,16.80 -607.50,6.54 -606.40,-0.71 -605.30,-7.60 -604.79,-16.81"/>
        <lane id=":W_1_1" index="1" speed="13.89" length="33.80" shape="-604.80,16.80 -604.30,6.54 -603.20,-0.71 -602.10,-7.60 -601.59,-16.80"/>
    </edge>
    <edge id=":W_3" function="internal">
        <lane id=":W_3_0" index="0" speed="11.36" length="7.96" shape="-601.60,16.80 -600.47,8.92"/>
    </edge>
    <edge id=":W_16" function="internal">
        <lane id=":W_16_0" index="0" speed="11.36" length="21.72" shape="-600.47,8.92 -600.45,8.75 -597.00,3.00 -591.25,-0.45 -583.20,-1.60"/>
    </edge>
    <edge id=":W_4" function="internal">
        <lane id=":W_4_0" index="0" speed="7.33" length="11.73" shape="-583.20,11.20 -587.05,11.55 -589.80,12.60 -591.45,14.35 -592.00,16.80"/>
    </edge>
    <edge id=":W_5" function="internal">
        <lane id=":W_5_0" index="0" speed="13.89" length="33.80" shape="-583.20,8.00 -593.46,7.50 -600.70,6.40 -607.59,5.30 -616.80,4.80"/>
        <lane id=":W_5_1" index="1" speed="13.89" length="33.80" shape="-583.20,4.80 -593.46,4.30 -600.70,3.20 -607.59,2.10 -616.80,1.60"/>
    </edge>
    <edge id=":W_7" function="internal">
        <lane id=":W_7_0" index="0" speed="11.36" length="13.36" shape="-583.20,1.60 -591.25,0.45 -595.73,-2.24"/>
    </edge>
    <edge id=":W_17" function="internal">
        <lane id=":W_17_0" index="0" speed="11.36" length="16.32" shape="-595.73,-2.24 -597.00,-3.00 -600.45,-8.75 -601.59,-16.80"/>
    </edge>
    <edge id=":W_8" function="internal">
        <lane id=":W_8_0" index="0" speed="6.51" length="9.03" shape="-588.79,-16.80 -588.45,-14.35 -587.40,-12.60 -585.65,-11.55 -583.20,-11.20"/>
    </edge>
    <edge id=":W_9" function="internal">
        <lane id=":W_9_0" index="0" speed="13.89" length="33.80" shape="-591.99,-16.80 -592.50,-6.54 -593.60,0.70 -594.70,7.59 -595.20,16.80"/>
        <lane id=":W_9_1" index="1" speed="13.89" length="33.80" shape="-595.19,-16.80 -595.70,-6.54 -596.80,0.70 -597.90,7.59 -598.40,16.80"/>
    </edge>
    <edge id=":W_11" function="internal">
        <lane id=":W_11_0" index="0" speed="11.36" length="7.96" shape="-598.39,-16.80 -599.52,-8.93"/>
    </edge>
    <edge id=":W_18" function="internal">
        <lane id=":W_18_0" index="0" speed="11.36" length="21.72" shape="-599.52,-8.93 -599.55,-8.75 -603.00,-3.00 -608.75,0.45 -616.80,1.60"/>
    </edge>
    <edge id=":W_12" function="internal">
        <lane id=":W_12_0" index="0" speed="7.33" length="11.74" shape="-616.80,-11.20 -612.95,-11.55 -610.20,-12.60 -608.55,-14.35 -607.99,-16.81"/>
    </edge>
    <edge id=":W_13" function="internal">
        <lane id=":W_13_0" index="0" speed="13.89" length="33.60" shape="-616.80,-8.00 -583.20,-8.00"/>
        <lane id=":W_13_1" index="1" speed="13.89" length="33.60" shape="-616.80,-4.80 -583.20,-4.80"/>
    </edge>
    <edge id=":W_15" function="internal">
        <lane id=":W_15_0" index="0" speed="11.36" length="7.96" shape="-616.80,-1.60 -608.92,-0.47"/>
    </edge>
    <edge id=":W_19" function="internal">